Circuit: * C:\users\akash\Desktop\ActiveFiltersPractice\Draft1.asc


Date: Wed Sep 28 09:58:40 2022
Total elapsed time: 0.037 seconds.

tnom = 27
temp = 27
method = trap
totiter = 0
traniter = 0
tranpoints = 0
accept = 0
rejected = 0
matrix size = 4
fillins = 0
solver = Normal

