Circuit: * C:\users\akash\Desktop\ActiveFiltersPractice\Draft1.asc

Direct Newton iteration for .op point succeeded.

Date: Thu Sep 29 11:55:38 2022
Total elapsed time: 0.068 seconds.

tnom = 27
temp = 27
method = trap
totiter = 11
traniter = 0
tranpoints = 0
accept = 0
rejected = 0
matrix size = 40
fillins = 45
solver = Normal
Matrix Compiler1:     232 opcodes
Matrix Compiler2: 4.00 KB object code size
