Circuit: * C:\users\akash\Desktop\ActiveFiltersPractice\Draft2.asc


Date: Fri Sep 30 20:34:27 2022
Total elapsed time: 0.066 seconds.

tnom = 27
temp = 27
method = trap
totiter = 0
traniter = 0
tranpoints = 0
accept = 0
rejected = 0
matrix size = 5
fillins = 1
solver = Normal

