Circuit: * C:\users\akash\Desktop\ActiveFiltersPractice\Draft1.asc

Direct Newton iteration for .op point succeeded.

Date: Mon Oct 03 10:45:46 2022
Total elapsed time: 0.073 seconds.

tnom = 27
temp = 27
method = trap
totiter = 11
traniter = 0
tranpoints = 0
accept = 0
rejected = 0
matrix size = 110
fillins = 108
solver = Normal
Matrix Compiler1:     560 opcodes
Matrix Compiler2: 10.81 KB object code size
