Circuit: * C:\users\akash\Desktop\ActiveFiltersPractice\Project Images\TSMC250nm.asc

Ignoring BSIM parameter XL
Ignoring BSIM parameter XW
Ignoring BSIM parameter LDIF
Ignoring BSIM parameter HDIF
Ignoring BSIM parameter CTP
Ignoring BSIM parameter PTP
Ignoring BSIM parameter CTA
Ignoring BSIM parameter PTA
Ignoring BSIM parameter TLEVC
WARNING: Node NC_01 is floating.

WARNING: Less than two connections to node NC_01.  This node is used by M1.
Warning: Pd = 0 is less than W.
Warning: Ps = 0 is less than W.

Date: Sun Oct 30 17:27:12 2022
Total elapsed time: 0.054 seconds.

tnom = 27
temp = 27
method = trap
totiter = 665
traniter = 0
tranpoints = 0
accept = 0
rejected = 0
matrix size = 5
fillins = 0
solver = Normal
Matrix Compiler1: 204 bytes object code size  0.0/0.0/[0.0]
Matrix Compiler2: 311 bytes object code size  0.0/0.0/[0.0]

