Circuit: * C:\users\akash\Desktop\ActiveFiltersPractice\Project Images\TSMC250nm.asc

Ignoring BSIM parameter XL
Ignoring BSIM parameter XW
Ignoring BSIM parameter LDIF
Ignoring BSIM parameter HDIF
Ignoring BSIM parameter CTP
Ignoring BSIM parameter PTP
Ignoring BSIM parameter CTA
Ignoring BSIM parameter PTA
Ignoring BSIM parameter TLEVC
Warning: Pd = 0 is less than W.
Warning: Ps = 0 is less than W.

Date: Sat Oct 29 12:44:59 2022
Total elapsed time: 0.058 seconds.

tnom = 27
temp = 27
method = trap
totiter = 644
traniter = 0
tranpoints = 0
accept = 0
rejected = 0
matrix size = 4
fillins = 0
solver = Normal
Matrix Compiler1: off  [0.0]/0.0/0.0
Matrix Compiler2: 216 bytes object code size  0.0/0.0/[0.0]

