Circuit: * C:\users\akash\Desktop\ActiveFiltersPractice\Project Images\AFProject_Macromodel_Realization.asc

ERROR: Node N006 is floating and connected to current source G4
ERROR: Node N007 is floating and connected to current source G3
ERROR: Node N008 is floating and connected to current source G8
ERROR: Node VOMAC is floating and connected to current source G7

Direct Newton iteration for .op point succeeded.

Date: Mon Oct 31 23:18:58 2022
Total elapsed time: 0.182 seconds.

tnom = 27
temp = 27
method = trap
totiter = 3
traniter = 0
tranpoints = 0
accept = 0
rejected = 0
matrix size = 40
fillins = 30
solver = Normal
Matrix Compiler1:     144 opcodes
Matrix Compiler2: 3.63 KB object code size
