Circuit: * C:\users\akash\Desktop\ActiveFiltersPractice\Project\Draft2.asc

Ignoring BSIM parameter XL
Ignoring BSIM parameter XW
Ignoring BSIM parameter XL
Ignoring BSIM parameter XW
Warning: Pd = 0 is less than W.
Warning: Ps = 0 is less than W.
Warning: Pd = 0 is less than W.
Warning: Ps = 0 is less than W.
Warning: Pd = 0 is less than W.
Warning: Ps = 0 is less than W.
Direct Newton iteration for .op point succeeded.

Date: Thu Nov 03 09:12:51 2022
Total elapsed time: 0.190 seconds.

tnom = 27
temp = 27
method = trap
totiter = 20
traniter = 0
tranpoints = 0
accept = 0
rejected = 0
matrix size = 11
fillins = 2
solver = Normal
Matrix Compiler1:      35 opcodes
Matrix Compiler2: 963 bytes object code size
